%chk=C:\Users\Public\tests\Sn1_vac_TS.chk
%mem=1GB
%nprocshared=2
#p opt=(ts,modredundant) freq rb3lyp/6-31+g(d)
scrf=(solvent=dichloromethane,smd) geom=connectivity scf=maxcycles=9999

Title Card Required

0 1
 C                 -1.87139200   -0.00047400    0.00011500
 C                 -1.94335300    1.37160900    0.52239200
 H                 -3.02606200    1.59574500    0.60340200
 H                 -1.52390500    1.46293800    1.52651300
 H                 -1.51798300    2.10620800   -0.16482200
 C                 -1.94190500   -0.23442600   -1.44897600
 H                 -1.52101800    0.58929400   -2.02934700
 H                 -1.51774100   -1.19734900   -1.74132200
 H                 -3.02457400   -0.27402200   -1.68471600
 C                 -1.93832600   -1.13882300    0.92714100
 H                 -1.52131500   -2.05407900    0.50186000
 H                 -1.50832700   -0.91151400    1.90493500
 H                 -3.02050500   -1.32047900    1.08634000
 Br                 1.83860800    0.00045600   -0.00019600

 1 2 1.0 6 1.0 10 1.0
 2 3 1.0 4 1.0 5 1.0
 3
 4
 5
 6 7 1.0 8 1.0 9 1.0
 7
 8
 9
 10 11 1.0 12 1.0 13 1.0
 11
 12
 13
 14

B 1 14 S 20 0.300000

